<?xml version="1.0" encoding="UTF-8"?>

<!-- generated on 2026-03-07 14:26:53.550324 by Eclipse SUMO osmWebWizard.py v1_26_0+0000-fa7df22d7f1
  options: 
-->

<additional xmlns:xsi="http://www.w3.org/2001/XMLSchema-instance" xsi:noNamespaceSchemaLocation="http://sumo.dlr.de/xsd/additional_file.xsd">
   <edgeData id="wizard_example" period="3600" file="edgeData.xml"/>
</additional>
